16
100013
C         -0.72548        1.14855       -0.03793
C          0.66651        1.24111        0.01323
C          1.44075        0.08205        0.04249
C          0.82653       -1.16994        0.01334
C         -0.56664       -1.26696       -0.03692
C         -1.34974       -0.10541       -0.05139
C         -2.83555       -0.15078       -0.10476
O         -3.49636        0.80299       -0.49617
N         -3.45072       -1.28802        0.34057
H         -1.32449        2.05698       -0.06553
H          1.14467        2.21732        0.02641
H          2.52509        0.15507        0.07850
H          1.43462       -2.07138        0.02004
H         -1.01959       -2.25189       -0.09155
H         -2.97307       -1.99296        0.88195
H         -4.46089       -1.25925        0.39005
